[General]
network = renam
sim-time-limit = 6s
**.a0_Chisinau.libTable.config = xmldoc("a0_Chisinau_lib.xml")
**.a1_Balti.libTable.config = xmldoc("a1_Balti_lib.xml")
**.a2________Cahul.libTable.config = xmldoc("a2________Cahul_lib.xml")
**.a3_StarNet_ISP.libTable.config = xmldoc("a3_StarNet_ISP_lib.xml")
**.a4_RoEduNet.libTable.config = xmldoc("a4_RoEduNet_lib.xml")
**.rsvp.helloInterval = 0.2s
**.rsvp.helloTimeout = 0.5s
**.ppp[*].queue.typename = "DropTailQueue"
**.ppp[*].queue.packetCapacity = 10

**.a0_Chisinau.classifier.config = xmldoc("a0_Chisinau_classification.xml")
**.a1_Balti.classifier.config = xmldoc("a1_Balti_classification.xml")
**.a2________Cahul.classifier.config = xmldoc("a2________Cahul_classification.xml")
**.a3_StarNet_ISP.classifier.config = xmldoc("a3_StarNet_ISP_classification.xml")
**.a4_RoEduNet.classifier.config = xmldoc("a4_RoEduNet_classification.xml")
**.host1.numApps = 1
**.host1.app[0].typename = "UdpBasicApp"
**.host1.app[0].localPort = 1000
**.host1.app[0].destPort = 1000
**.host1.app[0].messageLength = 64 bytes
**.host1.app[0].sendInterval = 0.01s
**.host1.app[0].destAddresses = "target1"

**.host2.numApps = 1
**.host2.app[0].typename = "UdpBasicApp"
**.host2.app[0].localPort = 1000
**.host2.app[0].destPort = 1000
**.host2.app[0].messageLength = 64 bytes
**.host2.app[0].sendInterval = 0.01s
**.host2.app[0].destAddresses = "target2"

**.host3.numApps = 1
**.host3.app[0].typename = "UdpBasicApp"
**.host3.app[0].localPort = 1000
**.host3.app[0].destPort = 1000
**.host3.app[0].messageLength = 64 bytes
**.host3.app[0].sendInterval = 0.01s
**.host3.app[0].destAddresses = "target3"

**.host4.numApps = 1
**.host4.app[0].typename = "UdpBasicApp"
**.host4.app[0].localPort = 1000
**.host4.app[0].destPort = 1000
**.host4.app[0].messageLength = 64 bytes
**.host4.app[0].sendInterval = 0.01s
**.host4.app[0].destAddresses = "target4"

**.host5.numApps = 1
**.host5.app[0].typename = "UdpBasicApp"
**.host5.app[0].localPort = 1000
**.host5.app[0].destPort = 1000
**.host5.app[0].messageLength = 64 bytes
**.host5.app[0].sendInterval = 0.01s
**.host5.app[0].destAddresses = "target5"

**.host6.numApps = 1
**.host6.app[0].typename = "UdpBasicApp"
**.host6.app[0].localPort = 1000
**.host6.app[0].destPort = 1000
**.host6.app[0].messageLength = 64 bytes
**.host6.app[0].sendInterval = 0.01s
**.host6.app[0].destAddresses = "target6"

**.host7.numApps = 1
**.host7.app[0].typename = "UdpBasicApp"
**.host7.app[0].localPort = 1000
**.host7.app[0].destPort = 1000
**.host7.app[0].messageLength = 64 bytes
**.host7.app[0].sendInterval = 0.01s
**.host7.app[0].destAddresses = "target7"

**.host8.numApps = 1
**.host8.app[0].typename = "UdpBasicApp"
**.host8.app[0].localPort = 1000
**.host8.app[0].destPort = 1000
**.host8.app[0].messageLength = 64 bytes
**.host8.app[0].sendInterval = 0.01s
**.host8.app[0].destAddresses = "target8"

**.host9.numApps = 1
**.host9.app[0].typename = "UdpBasicApp"
**.host9.app[0].localPort = 1000
**.host9.app[0].destPort = 1000
**.host9.app[0].messageLength = 64 bytes
**.host9.app[0].sendInterval = 0.01s
**.host9.app[0].destAddresses = "target9"

**.host10.numApps = 1
**.host10.app[0].typename = "UdpBasicApp"
**.host10.app[0].localPort = 1000
**.host10.app[0].destPort = 1000
**.host10.app[0].messageLength = 64 bytes
**.host10.app[0].sendInterval = 0.01s
**.host10.app[0].destAddresses = "target10"

**.host11.numApps = 1
**.host11.app[0].typename = "UdpBasicApp"
**.host11.app[0].localPort = 1000
**.host11.app[0].destPort = 1000
**.host11.app[0].messageLength = 64 bytes
**.host11.app[0].sendInterval = 0.01s
**.host11.app[0].destAddresses = "target11"

**.host12.numApps = 1
**.host12.app[0].typename = "UdpBasicApp"
**.host12.app[0].localPort = 1000
**.host12.app[0].destPort = 1000
**.host12.app[0].messageLength = 64 bytes
**.host12.app[0].sendInterval = 0.01s
**.host12.app[0].destAddresses = "target12"

**.host13.numApps = 1
**.host13.app[0].typename = "UdpBasicApp"
**.host13.app[0].localPort = 1000
**.host13.app[0].destPort = 1000
**.host13.app[0].messageLength = 64 bytes
**.host13.app[0].sendInterval = 0.01s
**.host13.app[0].destAddresses = "target13"

**.host14.numApps = 1
**.host14.app[0].typename = "UdpBasicApp"
**.host14.app[0].localPort = 1000
**.host14.app[0].destPort = 1000
**.host14.app[0].messageLength = 64 bytes
**.host14.app[0].sendInterval = 0.01s
**.host14.app[0].destAddresses = "target14"

**.host15.numApps = 1
**.host15.app[0].typename = "UdpBasicApp"
**.host15.app[0].localPort = 1000
**.host15.app[0].destPort = 1000
**.host15.app[0].messageLength = 64 bytes
**.host15.app[0].sendInterval = 0.01s
**.host15.app[0].destAddresses = "target15"

**.host16.numApps = 1
**.host16.app[0].typename = "UdpBasicApp"
**.host16.app[0].localPort = 1000
**.host16.app[0].destPort = 1000
**.host16.app[0].messageLength = 64 bytes
**.host16.app[0].sendInterval = 0.01s
**.host16.app[0].destAddresses = "target16"

**.host17.numApps = 1
**.host17.app[0].typename = "UdpBasicApp"
**.host17.app[0].localPort = 1000
**.host17.app[0].destPort = 1000
**.host17.app[0].messageLength = 64 bytes
**.host17.app[0].sendInterval = 0.01s
**.host17.app[0].destAddresses = "target17"

**.host18.numApps = 1
**.host18.app[0].typename = "UdpBasicApp"
**.host18.app[0].localPort = 1000
**.host18.app[0].destPort = 1000
**.host18.app[0].messageLength = 64 bytes
**.host18.app[0].sendInterval = 0.01s
**.host18.app[0].destAddresses = "target18"

**.host19.numApps = 1
**.host19.app[0].typename = "UdpBasicApp"
**.host19.app[0].localPort = 1000
**.host19.app[0].destPort = 1000
**.host19.app[0].messageLength = 64 bytes
**.host19.app[0].sendInterval = 0.01s
**.host19.app[0].destAddresses = "target19"

**.host20.numApps = 1
**.host20.app[0].typename = "UdpBasicApp"
**.host20.app[0].localPort = 1000
**.host20.app[0].destPort = 1000
**.host20.app[0].messageLength = 64 bytes
**.host20.app[0].sendInterval = 0.01s
**.host20.app[0].destAddresses = "target20"

**.target18.numApps = 1
**.target18.app[0].typename = "UdpSinkApp"
**.target18.app[0].io.localPort = 1000

**.target2.numApps = 1
**.target2.app[0].typename = "UdpSinkApp"
**.target2.app[0].io.localPort = 1000

**.target14.numApps = 1
**.target14.app[0].typename = "UdpSinkApp"
**.target14.app[0].io.localPort = 1000

**.target20.numApps = 1
**.target20.app[0].typename = "UdpSinkApp"
**.target20.app[0].io.localPort = 1000

**.target3.numApps = 1
**.target3.app[0].typename = "UdpSinkApp"
**.target3.app[0].io.localPort = 1000

**.target13.numApps = 1
**.target13.app[0].typename = "UdpSinkApp"
**.target13.app[0].io.localPort = 1000

**.target11.numApps = 1
**.target11.app[0].typename = "UdpSinkApp"
**.target11.app[0].io.localPort = 1000

**.target5.numApps = 1
**.target5.app[0].typename = "UdpSinkApp"
**.target5.app[0].io.localPort = 1000

**.target16.numApps = 1
**.target16.app[0].typename = "UdpSinkApp"
**.target16.app[0].io.localPort = 1000

**.target6.numApps = 1
**.target6.app[0].typename = "UdpSinkApp"
**.target6.app[0].io.localPort = 1000

**.target4.numApps = 1
**.target4.app[0].typename = "UdpSinkApp"
**.target4.app[0].io.localPort = 1000

**.target9.numApps = 1
**.target9.app[0].typename = "UdpSinkApp"
**.target9.app[0].io.localPort = 1000

**.target17.numApps = 1
**.target17.app[0].typename = "UdpSinkApp"
**.target17.app[0].io.localPort = 1000

**.target12.numApps = 1
**.target12.app[0].typename = "UdpSinkApp"
**.target12.app[0].io.localPort = 1000

**.target7.numApps = 1
**.target7.app[0].typename = "UdpSinkApp"
**.target7.app[0].io.localPort = 1000

**.target8.numApps = 1
**.target8.app[0].typename = "UdpSinkApp"
**.target8.app[0].io.localPort = 1000

**.target19.numApps = 1
**.target19.app[0].typename = "UdpSinkApp"
**.target19.app[0].io.localPort = 1000

**.target1.numApps = 1
**.target1.app[0].typename = "UdpSinkApp"
**.target1.app[0].io.localPort = 1000

**.target15.numApps = 1
**.target15.app[0].typename = "UdpSinkApp"
**.target15.app[0].io.localPort = 1000

**.target10.numApps = 1
**.target10.app[0].typename = "UdpSinkApp"
**.target10.app[0].io.localPort = 1000

