[General]
network = default
sim-time-limit = 6s
**.a0_ILLINOIS.libTable.config = xmldoc("a0_ILLINOIS_lib.xml")
**.a26_UTAH.libTable.config = xmldoc("a26_UTAH_lib.xml")
**.a28_MIT.libTable.config = xmldoc("a28_MIT_lib.xml")
**.a1_MITRE.libTable.config = xmldoc("a1_MITRE_lib.xml")
**.a16_SAAC.libTable.config = xmldoc("a16_SAAC_lib.xml")
**.a10_ARPA.libTable.config = xmldoc("a10_ARPA_lib.xml")
**.a2_CARNEGIE.libTable.config = xmldoc("a2_CARNEGIE_lib.xml")
**.a17_BELVOIR.libTable.config = xmldoc("a17_BELVOIR_lib.xml")
**.a3_CASE.libTable.config = xmldoc("a3_CASE_lib.xml")
**.a11_RADC.libTable.config = xmldoc("a11_RADC_lib.xml")
**.a5_AFGWC.libTable.config = xmldoc("a5_AFGWC_lib.xml")
**.a4_ETAC.libTable.config = xmldoc("a4_ETAC_lib.xml")
**.a8_Tinker.libTable.config = xmldoc("a8_Tinker_lib.xml")
**.a7_NBS.libTable.config = xmldoc("a7_NBS_lib.xml")
**.a15_NOAA_Boulder_Colorado.libTable.config = xmldoc("a15_NOAA_Boulder_Colorado_lib.xml")
**.a6_BBN.libTable.config = xmldoc("a6_BBN_lib.xml")
**.a19_BBN.libTable.config = xmldoc("a19_BBN_lib.xml")
**.a20_HARVARD.libTable.config = xmldoc("a20_HARVARD_lib.xml")
**.a13_RAND.libTable.config = xmldoc("a13_RAND_lib.xml")
**.a9_AMES.libTable.config = xmldoc("a9_AMES_lib.xml")
**.a21_SRI.libTable.config = xmldoc("a21_SRI_lib.xml")
**.a14_AMES.libTable.config = xmldoc("a14_AMES_lib.xml")
**.a27_Lincoln.libTable.config = xmldoc("a27_Lincoln_lib.xml")
**.a12_McClellan.libTable.config = xmldoc("a12_McClellan_lib.xml")
**.a24_Stanford.libTable.config = xmldoc("a24_Stanford_lib.xml")
**.a23_UCLA.libTable.config = xmldoc("a23_UCLA_lib.xml")
**.a25_USC.libTable.config = xmldoc("a25_USC_lib.xml")
**.a18_SDC.libTable.config = xmldoc("a18_SDC_lib.xml")
**.a22_UCSB.libTable.config = xmldoc("a22_UCSB_lib.xml")
**.rsvp.helloInterval = 0.2s
**.rsvp.helloTimeout = 0.5s
**.ppp[*].queue.typename = "DropTailQueue"
**.ppp[*].queue.packetCapacity = 10

**.a0_ILLINOIS.classifier.config = xmldoc("a0_ILLINOIS_classification.xml")
**.a26_UTAH.classifier.config = xmldoc("a26_UTAH_classification.xml")
**.a28_MIT.classifier.config = xmldoc("a28_MIT_classification.xml")
**.a1_MITRE.classifier.config = xmldoc("a1_MITRE_classification.xml")
**.a16_SAAC.classifier.config = xmldoc("a16_SAAC_classification.xml")
**.a10_ARPA.classifier.config = xmldoc("a10_ARPA_classification.xml")
**.a2_CARNEGIE.classifier.config = xmldoc("a2_CARNEGIE_classification.xml")
**.a17_BELVOIR.classifier.config = xmldoc("a17_BELVOIR_classification.xml")
**.a3_CASE.classifier.config = xmldoc("a3_CASE_classification.xml")
**.a11_RADC.classifier.config = xmldoc("a11_RADC_classification.xml")
**.a5_AFGWC.classifier.config = xmldoc("a5_AFGWC_classification.xml")
**.a4_ETAC.classifier.config = xmldoc("a4_ETAC_classification.xml")
**.a8_Tinker.classifier.config = xmldoc("a8_Tinker_classification.xml")
**.a7_NBS.classifier.config = xmldoc("a7_NBS_classification.xml")
**.a15_NOAA_Boulder_Colorado.classifier.config = xmldoc("a15_NOAA_Boulder_Colorado_classification.xml")
**.a6_BBN.classifier.config = xmldoc("a6_BBN_classification.xml")
**.a19_BBN.classifier.config = xmldoc("a19_BBN_classification.xml")
**.a20_HARVARD.classifier.config = xmldoc("a20_HARVARD_classification.xml")
**.a13_RAND.classifier.config = xmldoc("a13_RAND_classification.xml")
**.a9_AMES.classifier.config = xmldoc("a9_AMES_classification.xml")
**.a21_SRI.classifier.config = xmldoc("a21_SRI_classification.xml")
**.a14_AMES.classifier.config = xmldoc("a14_AMES_classification.xml")
**.a27_Lincoln.classifier.config = xmldoc("a27_Lincoln_classification.xml")
**.a12_McClellan.classifier.config = xmldoc("a12_McClellan_classification.xml")
**.a24_Stanford.classifier.config = xmldoc("a24_Stanford_classification.xml")
**.a23_UCLA.classifier.config = xmldoc("a23_UCLA_classification.xml")
**.a25_USC.classifier.config = xmldoc("a25_USC_classification.xml")
**.a18_SDC.classifier.config = xmldoc("a18_SDC_classification.xml")
**.a22_UCSB.classifier.config = xmldoc("a22_UCSB_classification.xml")
**.host1.numApps = 1
**.host1.app[0].typename = "UdpBasicApp"
**.host1.app[0].localPort = 1000
**.host1.app[0].destPort = 1000
**.host1.app[0].messageLength = 64 bytes
**.host1.app[0].sendInterval = 0.01s
**.host1.app[0].destAddresses = "target1"

**.host2.numApps = 1
**.host2.app[0].typename = "UdpBasicApp"
**.host2.app[0].localPort = 1000
**.host2.app[0].destPort = 1000
**.host2.app[0].messageLength = 64 bytes
**.host2.app[0].sendInterval = 0.01s
**.host2.app[0].destAddresses = "target2"

**.host3.numApps = 1
**.host3.app[0].typename = "UdpBasicApp"
**.host3.app[0].localPort = 1000
**.host3.app[0].destPort = 1000
**.host3.app[0].messageLength = 64 bytes
**.host3.app[0].sendInterval = 0.01s
**.host3.app[0].destAddresses = "target3"

**.host4.numApps = 1
**.host4.app[0].typename = "UdpBasicApp"
**.host4.app[0].localPort = 1000
**.host4.app[0].destPort = 1000
**.host4.app[0].messageLength = 64 bytes
**.host4.app[0].sendInterval = 0.01s
**.host4.app[0].destAddresses = "target4"

**.host5.numApps = 1
**.host5.app[0].typename = "UdpBasicApp"
**.host5.app[0].localPort = 1000
**.host5.app[0].destPort = 1000
**.host5.app[0].messageLength = 64 bytes
**.host5.app[0].sendInterval = 0.01s
**.host5.app[0].destAddresses = "target5"

**.host6.numApps = 1
**.host6.app[0].typename = "UdpBasicApp"
**.host6.app[0].localPort = 1000
**.host6.app[0].destPort = 1000
**.host6.app[0].messageLength = 64 bytes
**.host6.app[0].sendInterval = 0.01s
**.host6.app[0].destAddresses = "target6"

**.host7.numApps = 1
**.host7.app[0].typename = "UdpBasicApp"
**.host7.app[0].localPort = 1000
**.host7.app[0].destPort = 1000
**.host7.app[0].messageLength = 64 bytes
**.host7.app[0].sendInterval = 0.01s
**.host7.app[0].destAddresses = "target7"

**.host8.numApps = 1
**.host8.app[0].typename = "UdpBasicApp"
**.host8.app[0].localPort = 1000
**.host8.app[0].destPort = 1000
**.host8.app[0].messageLength = 64 bytes
**.host8.app[0].sendInterval = 0.01s
**.host8.app[0].destAddresses = "target8"

**.host9.numApps = 1
**.host9.app[0].typename = "UdpBasicApp"
**.host9.app[0].localPort = 1000
**.host9.app[0].destPort = 1000
**.host9.app[0].messageLength = 64 bytes
**.host9.app[0].sendInterval = 0.01s
**.host9.app[0].destAddresses = "target9"

**.host10.numApps = 1
**.host10.app[0].typename = "UdpBasicApp"
**.host10.app[0].localPort = 1000
**.host10.app[0].destPort = 1000
**.host10.app[0].messageLength = 64 bytes
**.host10.app[0].sendInterval = 0.01s
**.host10.app[0].destAddresses = "target10"

**.host11.numApps = 1
**.host11.app[0].typename = "UdpBasicApp"
**.host11.app[0].localPort = 1000
**.host11.app[0].destPort = 1000
**.host11.app[0].messageLength = 64 bytes
**.host11.app[0].sendInterval = 0.01s
**.host11.app[0].destAddresses = "target11"

**.host12.numApps = 1
**.host12.app[0].typename = "UdpBasicApp"
**.host12.app[0].localPort = 1000
**.host12.app[0].destPort = 1000
**.host12.app[0].messageLength = 64 bytes
**.host12.app[0].sendInterval = 0.01s
**.host12.app[0].destAddresses = "target12"

**.host13.numApps = 1
**.host13.app[0].typename = "UdpBasicApp"
**.host13.app[0].localPort = 1000
**.host13.app[0].destPort = 1000
**.host13.app[0].messageLength = 64 bytes
**.host13.app[0].sendInterval = 0.01s
**.host13.app[0].destAddresses = "target13"

**.host14.numApps = 1
**.host14.app[0].typename = "UdpBasicApp"
**.host14.app[0].localPort = 1000
**.host14.app[0].destPort = 1000
**.host14.app[0].messageLength = 64 bytes
**.host14.app[0].sendInterval = 0.01s
**.host14.app[0].destAddresses = "target14"

**.host15.numApps = 1
**.host15.app[0].typename = "UdpBasicApp"
**.host15.app[0].localPort = 1000
**.host15.app[0].destPort = 1000
**.host15.app[0].messageLength = 64 bytes
**.host15.app[0].sendInterval = 0.01s
**.host15.app[0].destAddresses = "target15"

**.host16.numApps = 1
**.host16.app[0].typename = "UdpBasicApp"
**.host16.app[0].localPort = 1000
**.host16.app[0].destPort = 1000
**.host16.app[0].messageLength = 64 bytes
**.host16.app[0].sendInterval = 0.01s
**.host16.app[0].destAddresses = "target16"

**.host17.numApps = 1
**.host17.app[0].typename = "UdpBasicApp"
**.host17.app[0].localPort = 1000
**.host17.app[0].destPort = 1000
**.host17.app[0].messageLength = 64 bytes
**.host17.app[0].sendInterval = 0.01s
**.host17.app[0].destAddresses = "target17"

**.host18.numApps = 1
**.host18.app[0].typename = "UdpBasicApp"
**.host18.app[0].localPort = 1000
**.host18.app[0].destPort = 1000
**.host18.app[0].messageLength = 64 bytes
**.host18.app[0].sendInterval = 0.01s
**.host18.app[0].destAddresses = "target18"

**.host19.numApps = 1
**.host19.app[0].typename = "UdpBasicApp"
**.host19.app[0].localPort = 1000
**.host19.app[0].destPort = 1000
**.host19.app[0].messageLength = 64 bytes
**.host19.app[0].sendInterval = 0.01s
**.host19.app[0].destAddresses = "target19"

**.host20.numApps = 1
**.host20.app[0].typename = "UdpBasicApp"
**.host20.app[0].localPort = 1000
**.host20.app[0].destPort = 1000
**.host20.app[0].messageLength = 64 bytes
**.host20.app[0].sendInterval = 0.01s
**.host20.app[0].destAddresses = "target20"

**.host21.numApps = 1
**.host21.app[0].typename = "UdpBasicApp"
**.host21.app[0].localPort = 1000
**.host21.app[0].destPort = 1000
**.host21.app[0].messageLength = 64 bytes
**.host21.app[0].sendInterval = 0.01s
**.host21.app[0].destAddresses = "target21"

**.host22.numApps = 1
**.host22.app[0].typename = "UdpBasicApp"
**.host22.app[0].localPort = 1000
**.host22.app[0].destPort = 1000
**.host22.app[0].messageLength = 64 bytes
**.host22.app[0].sendInterval = 0.01s
**.host22.app[0].destAddresses = "target22"

**.host23.numApps = 1
**.host23.app[0].typename = "UdpBasicApp"
**.host23.app[0].localPort = 1000
**.host23.app[0].destPort = 1000
**.host23.app[0].messageLength = 64 bytes
**.host23.app[0].sendInterval = 0.01s
**.host23.app[0].destAddresses = "target23"

**.host24.numApps = 1
**.host24.app[0].typename = "UdpBasicApp"
**.host24.app[0].localPort = 1000
**.host24.app[0].destPort = 1000
**.host24.app[0].messageLength = 64 bytes
**.host24.app[0].sendInterval = 0.01s
**.host24.app[0].destAddresses = "target24"

**.host25.numApps = 1
**.host25.app[0].typename = "UdpBasicApp"
**.host25.app[0].localPort = 1000
**.host25.app[0].destPort = 1000
**.host25.app[0].messageLength = 64 bytes
**.host25.app[0].sendInterval = 0.01s
**.host25.app[0].destAddresses = "target25"

**.host26.numApps = 1
**.host26.app[0].typename = "UdpBasicApp"
**.host26.app[0].localPort = 1000
**.host26.app[0].destPort = 1000
**.host26.app[0].messageLength = 64 bytes
**.host26.app[0].sendInterval = 0.01s
**.host26.app[0].destAddresses = "target26"

**.host27.numApps = 1
**.host27.app[0].typename = "UdpBasicApp"
**.host27.app[0].localPort = 1000
**.host27.app[0].destPort = 1000
**.host27.app[0].messageLength = 64 bytes
**.host27.app[0].sendInterval = 0.01s
**.host27.app[0].destAddresses = "target27"

**.host28.numApps = 1
**.host28.app[0].typename = "UdpBasicApp"
**.host28.app[0].localPort = 1000
**.host28.app[0].destPort = 1000
**.host28.app[0].messageLength = 64 bytes
**.host28.app[0].sendInterval = 0.01s
**.host28.app[0].destAddresses = "target28"

**.host29.numApps = 1
**.host29.app[0].typename = "UdpBasicApp"
**.host29.app[0].localPort = 1000
**.host29.app[0].destPort = 1000
**.host29.app[0].messageLength = 64 bytes
**.host29.app[0].sendInterval = 0.01s
**.host29.app[0].destAddresses = "target29"

**.host30.numApps = 1
**.host30.app[0].typename = "UdpBasicApp"
**.host30.app[0].localPort = 1000
**.host30.app[0].destPort = 1000
**.host30.app[0].messageLength = 64 bytes
**.host30.app[0].sendInterval = 0.01s
**.host30.app[0].destAddresses = "target30"

**.host31.numApps = 1
**.host31.app[0].typename = "UdpBasicApp"
**.host31.app[0].localPort = 1000
**.host31.app[0].destPort = 1000
**.host31.app[0].messageLength = 64 bytes
**.host31.app[0].sendInterval = 0.01s
**.host31.app[0].destAddresses = "target31"

**.host32.numApps = 1
**.host32.app[0].typename = "UdpBasicApp"
**.host32.app[0].localPort = 1000
**.host32.app[0].destPort = 1000
**.host32.app[0].messageLength = 64 bytes
**.host32.app[0].sendInterval = 0.01s
**.host32.app[0].destAddresses = "target32"

**.host33.numApps = 1
**.host33.app[0].typename = "UdpBasicApp"
**.host33.app[0].localPort = 1000
**.host33.app[0].destPort = 1000
**.host33.app[0].messageLength = 64 bytes
**.host33.app[0].sendInterval = 0.01s
**.host33.app[0].destAddresses = "target33"

**.host34.numApps = 1
**.host34.app[0].typename = "UdpBasicApp"
**.host34.app[0].localPort = 1000
**.host34.app[0].destPort = 1000
**.host34.app[0].messageLength = 64 bytes
**.host34.app[0].sendInterval = 0.01s
**.host34.app[0].destAddresses = "target34"

**.host35.numApps = 1
**.host35.app[0].typename = "UdpBasicApp"
**.host35.app[0].localPort = 1000
**.host35.app[0].destPort = 1000
**.host35.app[0].messageLength = 64 bytes
**.host35.app[0].sendInterval = 0.01s
**.host35.app[0].destAddresses = "target35"

**.host36.numApps = 1
**.host36.app[0].typename = "UdpBasicApp"
**.host36.app[0].localPort = 1000
**.host36.app[0].destPort = 1000
**.host36.app[0].messageLength = 64 bytes
**.host36.app[0].sendInterval = 0.01s
**.host36.app[0].destAddresses = "target36"

**.host37.numApps = 1
**.host37.app[0].typename = "UdpBasicApp"
**.host37.app[0].localPort = 1000
**.host37.app[0].destPort = 1000
**.host37.app[0].messageLength = 64 bytes
**.host37.app[0].sendInterval = 0.01s
**.host37.app[0].destAddresses = "target37"

**.host38.numApps = 1
**.host38.app[0].typename = "UdpBasicApp"
**.host38.app[0].localPort = 1000
**.host38.app[0].destPort = 1000
**.host38.app[0].messageLength = 64 bytes
**.host38.app[0].sendInterval = 0.01s
**.host38.app[0].destAddresses = "target38"

**.host39.numApps = 1
**.host39.app[0].typename = "UdpBasicApp"
**.host39.app[0].localPort = 1000
**.host39.app[0].destPort = 1000
**.host39.app[0].messageLength = 64 bytes
**.host39.app[0].sendInterval = 0.01s
**.host39.app[0].destAddresses = "target39"

**.host40.numApps = 1
**.host40.app[0].typename = "UdpBasicApp"
**.host40.app[0].localPort = 1000
**.host40.app[0].destPort = 1000
**.host40.app[0].messageLength = 64 bytes
**.host40.app[0].sendInterval = 0.01s
**.host40.app[0].destAddresses = "target40"

**.host41.numApps = 1
**.host41.app[0].typename = "UdpBasicApp"
**.host41.app[0].localPort = 1000
**.host41.app[0].destPort = 1000
**.host41.app[0].messageLength = 64 bytes
**.host41.app[0].sendInterval = 0.01s
**.host41.app[0].destAddresses = "target41"

**.host42.numApps = 1
**.host42.app[0].typename = "UdpBasicApp"
**.host42.app[0].localPort = 1000
**.host42.app[0].destPort = 1000
**.host42.app[0].messageLength = 64 bytes
**.host42.app[0].sendInterval = 0.01s
**.host42.app[0].destAddresses = "target42"

**.host43.numApps = 1
**.host43.app[0].typename = "UdpBasicApp"
**.host43.app[0].localPort = 1000
**.host43.app[0].destPort = 1000
**.host43.app[0].messageLength = 64 bytes
**.host43.app[0].sendInterval = 0.01s
**.host43.app[0].destAddresses = "target43"

**.host44.numApps = 1
**.host44.app[0].typename = "UdpBasicApp"
**.host44.app[0].localPort = 1000
**.host44.app[0].destPort = 1000
**.host44.app[0].messageLength = 64 bytes
**.host44.app[0].sendInterval = 0.01s
**.host44.app[0].destAddresses = "target44"

**.host45.numApps = 1
**.host45.app[0].typename = "UdpBasicApp"
**.host45.app[0].localPort = 1000
**.host45.app[0].destPort = 1000
**.host45.app[0].messageLength = 64 bytes
**.host45.app[0].sendInterval = 0.01s
**.host45.app[0].destAddresses = "target45"

**.host46.numApps = 1
**.host46.app[0].typename = "UdpBasicApp"
**.host46.app[0].localPort = 1000
**.host46.app[0].destPort = 1000
**.host46.app[0].messageLength = 64 bytes
**.host46.app[0].sendInterval = 0.01s
**.host46.app[0].destAddresses = "target46"

**.host47.numApps = 1
**.host47.app[0].typename = "UdpBasicApp"
**.host47.app[0].localPort = 1000
**.host47.app[0].destPort = 1000
**.host47.app[0].messageLength = 64 bytes
**.host47.app[0].sendInterval = 0.01s
**.host47.app[0].destAddresses = "target47"

**.host48.numApps = 1
**.host48.app[0].typename = "UdpBasicApp"
**.host48.app[0].localPort = 1000
**.host48.app[0].destPort = 1000
**.host48.app[0].messageLength = 64 bytes
**.host48.app[0].sendInterval = 0.01s
**.host48.app[0].destAddresses = "target48"

**.host49.numApps = 1
**.host49.app[0].typename = "UdpBasicApp"
**.host49.app[0].localPort = 1000
**.host49.app[0].destPort = 1000
**.host49.app[0].messageLength = 64 bytes
**.host49.app[0].sendInterval = 0.01s
**.host49.app[0].destAddresses = "target49"

**.host50.numApps = 1
**.host50.app[0].typename = "UdpBasicApp"
**.host50.app[0].localPort = 1000
**.host50.app[0].destPort = 1000
**.host50.app[0].messageLength = 64 bytes
**.host50.app[0].sendInterval = 0.01s
**.host50.app[0].destAddresses = "target50"

**.host51.numApps = 1
**.host51.app[0].typename = "UdpBasicApp"
**.host51.app[0].localPort = 1000
**.host51.app[0].destPort = 1000
**.host51.app[0].messageLength = 64 bytes
**.host51.app[0].sendInterval = 0.01s
**.host51.app[0].destAddresses = "target51"

**.host52.numApps = 1
**.host52.app[0].typename = "UdpBasicApp"
**.host52.app[0].localPort = 1000
**.host52.app[0].destPort = 1000
**.host52.app[0].messageLength = 64 bytes
**.host52.app[0].sendInterval = 0.01s
**.host52.app[0].destAddresses = "target52"

**.host53.numApps = 1
**.host53.app[0].typename = "UdpBasicApp"
**.host53.app[0].localPort = 1000
**.host53.app[0].destPort = 1000
**.host53.app[0].messageLength = 64 bytes
**.host53.app[0].sendInterval = 0.01s
**.host53.app[0].destAddresses = "target53"

**.host54.numApps = 1
**.host54.app[0].typename = "UdpBasicApp"
**.host54.app[0].localPort = 1000
**.host54.app[0].destPort = 1000
**.host54.app[0].messageLength = 64 bytes
**.host54.app[0].sendInterval = 0.01s
**.host54.app[0].destAddresses = "target54"

**.host55.numApps = 1
**.host55.app[0].typename = "UdpBasicApp"
**.host55.app[0].localPort = 1000
**.host55.app[0].destPort = 1000
**.host55.app[0].messageLength = 64 bytes
**.host55.app[0].sendInterval = 0.01s
**.host55.app[0].destAddresses = "target55"

**.host56.numApps = 1
**.host56.app[0].typename = "UdpBasicApp"
**.host56.app[0].localPort = 1000
**.host56.app[0].destPort = 1000
**.host56.app[0].messageLength = 64 bytes
**.host56.app[0].sendInterval = 0.01s
**.host56.app[0].destAddresses = "target56"

**.host57.numApps = 1
**.host57.app[0].typename = "UdpBasicApp"
**.host57.app[0].localPort = 1000
**.host57.app[0].destPort = 1000
**.host57.app[0].messageLength = 64 bytes
**.host57.app[0].sendInterval = 0.01s
**.host57.app[0].destAddresses = "target57"

**.host58.numApps = 1
**.host58.app[0].typename = "UdpBasicApp"
**.host58.app[0].localPort = 1000
**.host58.app[0].destPort = 1000
**.host58.app[0].messageLength = 64 bytes
**.host58.app[0].sendInterval = 0.01s
**.host58.app[0].destAddresses = "target58"

**.host59.numApps = 1
**.host59.app[0].typename = "UdpBasicApp"
**.host59.app[0].localPort = 1000
**.host59.app[0].destPort = 1000
**.host59.app[0].messageLength = 64 bytes
**.host59.app[0].sendInterval = 0.01s
**.host59.app[0].destAddresses = "target59"

**.host60.numApps = 1
**.host60.app[0].typename = "UdpBasicApp"
**.host60.app[0].localPort = 1000
**.host60.app[0].destPort = 1000
**.host60.app[0].messageLength = 64 bytes
**.host60.app[0].sendInterval = 0.01s
**.host60.app[0].destAddresses = "target60"

**.host61.numApps = 1
**.host61.app[0].typename = "UdpBasicApp"
**.host61.app[0].localPort = 1000
**.host61.app[0].destPort = 1000
**.host61.app[0].messageLength = 64 bytes
**.host61.app[0].sendInterval = 0.01s
**.host61.app[0].destAddresses = "target61"

**.host62.numApps = 1
**.host62.app[0].typename = "UdpBasicApp"
**.host62.app[0].localPort = 1000
**.host62.app[0].destPort = 1000
**.host62.app[0].messageLength = 64 bytes
**.host62.app[0].sendInterval = 0.01s
**.host62.app[0].destAddresses = "target62"

**.host63.numApps = 1
**.host63.app[0].typename = "UdpBasicApp"
**.host63.app[0].localPort = 1000
**.host63.app[0].destPort = 1000
**.host63.app[0].messageLength = 64 bytes
**.host63.app[0].sendInterval = 0.01s
**.host63.app[0].destAddresses = "target63"

**.host64.numApps = 1
**.host64.app[0].typename = "UdpBasicApp"
**.host64.app[0].localPort = 1000
**.host64.app[0].destPort = 1000
**.host64.app[0].messageLength = 64 bytes
**.host64.app[0].sendInterval = 0.01s
**.host64.app[0].destAddresses = "target64"

**.host65.numApps = 1
**.host65.app[0].typename = "UdpBasicApp"
**.host65.app[0].localPort = 1000
**.host65.app[0].destPort = 1000
**.host65.app[0].messageLength = 64 bytes
**.host65.app[0].sendInterval = 0.01s
**.host65.app[0].destAddresses = "target65"

**.host66.numApps = 1
**.host66.app[0].typename = "UdpBasicApp"
**.host66.app[0].localPort = 1000
**.host66.app[0].destPort = 1000
**.host66.app[0].messageLength = 64 bytes
**.host66.app[0].sendInterval = 0.01s
**.host66.app[0].destAddresses = "target66"

**.host67.numApps = 1
**.host67.app[0].typename = "UdpBasicApp"
**.host67.app[0].localPort = 1000
**.host67.app[0].destPort = 1000
**.host67.app[0].messageLength = 64 bytes
**.host67.app[0].sendInterval = 0.01s
**.host67.app[0].destAddresses = "target67"

**.host68.numApps = 1
**.host68.app[0].typename = "UdpBasicApp"
**.host68.app[0].localPort = 1000
**.host68.app[0].destPort = 1000
**.host68.app[0].messageLength = 64 bytes
**.host68.app[0].sendInterval = 0.01s
**.host68.app[0].destAddresses = "target68"

**.host69.numApps = 1
**.host69.app[0].typename = "UdpBasicApp"
**.host69.app[0].localPort = 1000
**.host69.app[0].destPort = 1000
**.host69.app[0].messageLength = 64 bytes
**.host69.app[0].sendInterval = 0.01s
**.host69.app[0].destAddresses = "target69"

**.host70.numApps = 1
**.host70.app[0].typename = "UdpBasicApp"
**.host70.app[0].localPort = 1000
**.host70.app[0].destPort = 1000
**.host70.app[0].messageLength = 64 bytes
**.host70.app[0].sendInterval = 0.01s
**.host70.app[0].destAddresses = "target70"

**.host71.numApps = 1
**.host71.app[0].typename = "UdpBasicApp"
**.host71.app[0].localPort = 1000
**.host71.app[0].destPort = 1000
**.host71.app[0].messageLength = 64 bytes
**.host71.app[0].sendInterval = 0.01s
**.host71.app[0].destAddresses = "target71"

**.host72.numApps = 1
**.host72.app[0].typename = "UdpBasicApp"
**.host72.app[0].localPort = 1000
**.host72.app[0].destPort = 1000
**.host72.app[0].messageLength = 64 bytes
**.host72.app[0].sendInterval = 0.01s
**.host72.app[0].destAddresses = "target72"

**.host73.numApps = 1
**.host73.app[0].typename = "UdpBasicApp"
**.host73.app[0].localPort = 1000
**.host73.app[0].destPort = 1000
**.host73.app[0].messageLength = 64 bytes
**.host73.app[0].sendInterval = 0.01s
**.host73.app[0].destAddresses = "target73"

**.host74.numApps = 1
**.host74.app[0].typename = "UdpBasicApp"
**.host74.app[0].localPort = 1000
**.host74.app[0].destPort = 1000
**.host74.app[0].messageLength = 64 bytes
**.host74.app[0].sendInterval = 0.01s
**.host74.app[0].destAddresses = "target74"

**.host75.numApps = 1
**.host75.app[0].typename = "UdpBasicApp"
**.host75.app[0].localPort = 1000
**.host75.app[0].destPort = 1000
**.host75.app[0].messageLength = 64 bytes
**.host75.app[0].sendInterval = 0.01s
**.host75.app[0].destAddresses = "target75"

**.host76.numApps = 1
**.host76.app[0].typename = "UdpBasicApp"
**.host76.app[0].localPort = 1000
**.host76.app[0].destPort = 1000
**.host76.app[0].messageLength = 64 bytes
**.host76.app[0].sendInterval = 0.01s
**.host76.app[0].destAddresses = "target76"

**.host77.numApps = 1
**.host77.app[0].typename = "UdpBasicApp"
**.host77.app[0].localPort = 1000
**.host77.app[0].destPort = 1000
**.host77.app[0].messageLength = 64 bytes
**.host77.app[0].sendInterval = 0.01s
**.host77.app[0].destAddresses = "target77"

**.host78.numApps = 1
**.host78.app[0].typename = "UdpBasicApp"
**.host78.app[0].localPort = 1000
**.host78.app[0].destPort = 1000
**.host78.app[0].messageLength = 64 bytes
**.host78.app[0].sendInterval = 0.01s
**.host78.app[0].destAddresses = "target78"

**.host79.numApps = 1
**.host79.app[0].typename = "UdpBasicApp"
**.host79.app[0].localPort = 1000
**.host79.app[0].destPort = 1000
**.host79.app[0].messageLength = 64 bytes
**.host79.app[0].sendInterval = 0.01s
**.host79.app[0].destAddresses = "target79"

**.host80.numApps = 1
**.host80.app[0].typename = "UdpBasicApp"
**.host80.app[0].localPort = 1000
**.host80.app[0].destPort = 1000
**.host80.app[0].messageLength = 64 bytes
**.host80.app[0].sendInterval = 0.01s
**.host80.app[0].destAddresses = "target80"

**.host81.numApps = 1
**.host81.app[0].typename = "UdpBasicApp"
**.host81.app[0].localPort = 1000
**.host81.app[0].destPort = 1000
**.host81.app[0].messageLength = 64 bytes
**.host81.app[0].sendInterval = 0.01s
**.host81.app[0].destAddresses = "target81"

**.host82.numApps = 1
**.host82.app[0].typename = "UdpBasicApp"
**.host82.app[0].localPort = 1000
**.host82.app[0].destPort = 1000
**.host82.app[0].messageLength = 64 bytes
**.host82.app[0].sendInterval = 0.01s
**.host82.app[0].destAddresses = "target82"

**.host83.numApps = 1
**.host83.app[0].typename = "UdpBasicApp"
**.host83.app[0].localPort = 1000
**.host83.app[0].destPort = 1000
**.host83.app[0].messageLength = 64 bytes
**.host83.app[0].sendInterval = 0.01s
**.host83.app[0].destAddresses = "target83"

**.host84.numApps = 1
**.host84.app[0].typename = "UdpBasicApp"
**.host84.app[0].localPort = 1000
**.host84.app[0].destPort = 1000
**.host84.app[0].messageLength = 64 bytes
**.host84.app[0].sendInterval = 0.01s
**.host84.app[0].destAddresses = "target84"

**.host85.numApps = 1
**.host85.app[0].typename = "UdpBasicApp"
**.host85.app[0].localPort = 1000
**.host85.app[0].destPort = 1000
**.host85.app[0].messageLength = 64 bytes
**.host85.app[0].sendInterval = 0.01s
**.host85.app[0].destAddresses = "target85"

**.host86.numApps = 1
**.host86.app[0].typename = "UdpBasicApp"
**.host86.app[0].localPort = 1000
**.host86.app[0].destPort = 1000
**.host86.app[0].messageLength = 64 bytes
**.host86.app[0].sendInterval = 0.01s
**.host86.app[0].destAddresses = "target86"

**.host87.numApps = 1
**.host87.app[0].typename = "UdpBasicApp"
**.host87.app[0].localPort = 1000
**.host87.app[0].destPort = 1000
**.host87.app[0].messageLength = 64 bytes
**.host87.app[0].sendInterval = 0.01s
**.host87.app[0].destAddresses = "target87"

**.host88.numApps = 1
**.host88.app[0].typename = "UdpBasicApp"
**.host88.app[0].localPort = 1000
**.host88.app[0].destPort = 1000
**.host88.app[0].messageLength = 64 bytes
**.host88.app[0].sendInterval = 0.01s
**.host88.app[0].destAddresses = "target88"

**.host89.numApps = 1
**.host89.app[0].typename = "UdpBasicApp"
**.host89.app[0].localPort = 1000
**.host89.app[0].destPort = 1000
**.host89.app[0].messageLength = 64 bytes
**.host89.app[0].sendInterval = 0.01s
**.host89.app[0].destAddresses = "target89"

**.host90.numApps = 1
**.host90.app[0].typename = "UdpBasicApp"
**.host90.app[0].localPort = 1000
**.host90.app[0].destPort = 1000
**.host90.app[0].messageLength = 64 bytes
**.host90.app[0].sendInterval = 0.01s
**.host90.app[0].destAddresses = "target90"

**.host91.numApps = 1
**.host91.app[0].typename = "UdpBasicApp"
**.host91.app[0].localPort = 1000
**.host91.app[0].destPort = 1000
**.host91.app[0].messageLength = 64 bytes
**.host91.app[0].sendInterval = 0.01s
**.host91.app[0].destAddresses = "target91"

**.host92.numApps = 1
**.host92.app[0].typename = "UdpBasicApp"
**.host92.app[0].localPort = 1000
**.host92.app[0].destPort = 1000
**.host92.app[0].messageLength = 64 bytes
**.host92.app[0].sendInterval = 0.01s
**.host92.app[0].destAddresses = "target92"

**.host93.numApps = 1
**.host93.app[0].typename = "UdpBasicApp"
**.host93.app[0].localPort = 1000
**.host93.app[0].destPort = 1000
**.host93.app[0].messageLength = 64 bytes
**.host93.app[0].sendInterval = 0.01s
**.host93.app[0].destAddresses = "target93"

**.host94.numApps = 1
**.host94.app[0].typename = "UdpBasicApp"
**.host94.app[0].localPort = 1000
**.host94.app[0].destPort = 1000
**.host94.app[0].messageLength = 64 bytes
**.host94.app[0].sendInterval = 0.01s
**.host94.app[0].destAddresses = "target94"

**.host95.numApps = 1
**.host95.app[0].typename = "UdpBasicApp"
**.host95.app[0].localPort = 1000
**.host95.app[0].destPort = 1000
**.host95.app[0].messageLength = 64 bytes
**.host95.app[0].sendInterval = 0.01s
**.host95.app[0].destAddresses = "target95"

**.host96.numApps = 1
**.host96.app[0].typename = "UdpBasicApp"
**.host96.app[0].localPort = 1000
**.host96.app[0].destPort = 1000
**.host96.app[0].messageLength = 64 bytes
**.host96.app[0].sendInterval = 0.01s
**.host96.app[0].destAddresses = "target96"

**.host97.numApps = 1
**.host97.app[0].typename = "UdpBasicApp"
**.host97.app[0].localPort = 1000
**.host97.app[0].destPort = 1000
**.host97.app[0].messageLength = 64 bytes
**.host97.app[0].sendInterval = 0.01s
**.host97.app[0].destAddresses = "target97"

**.host98.numApps = 1
**.host98.app[0].typename = "UdpBasicApp"
**.host98.app[0].localPort = 1000
**.host98.app[0].destPort = 1000
**.host98.app[0].messageLength = 64 bytes
**.host98.app[0].sendInterval = 0.01s
**.host98.app[0].destAddresses = "target98"

**.host99.numApps = 1
**.host99.app[0].typename = "UdpBasicApp"
**.host99.app[0].localPort = 1000
**.host99.app[0].destPort = 1000
**.host99.app[0].messageLength = 64 bytes
**.host99.app[0].sendInterval = 0.01s
**.host99.app[0].destAddresses = "target99"

**.host100.numApps = 1
**.host100.app[0].typename = "UdpBasicApp"
**.host100.app[0].localPort = 1000
**.host100.app[0].destPort = 1000
**.host100.app[0].messageLength = 64 bytes
**.host100.app[0].sendInterval = 0.01s
**.host100.app[0].destAddresses = "target100"

**.host101.numApps = 1
**.host101.app[0].typename = "UdpBasicApp"
**.host101.app[0].localPort = 1000
**.host101.app[0].destPort = 1000
**.host101.app[0].messageLength = 64 bytes
**.host101.app[0].sendInterval = 0.01s
**.host101.app[0].destAddresses = "target101"

**.host102.numApps = 1
**.host102.app[0].typename = "UdpBasicApp"
**.host102.app[0].localPort = 1000
**.host102.app[0].destPort = 1000
**.host102.app[0].messageLength = 64 bytes